*Node, Nset=Nall
      1,   9.19999981,         -20.,           0.
      2,   8.39999962,         -20.,           0.
      3,    7.5999999,         -20.,           0.
      4,   6.80000019,         -20.,           0.
      5,           6.,         -20.,           0.
      6,   5.19999981,         -20.,           0.
      7,           4.,         -20.,           0.
      8,   3.20000005,         -20.,           0.
      9,    2.4000001,         -20.,           0.
     10,   1.60000002,         -20.,           0.
     11,  0.800000012,         -20.,           0.
     12,           0.,         -20.,           0.
     13, -0.800000012,         -20.,           0.
     14,  -1.60000002,         -20.,           0.
     15,   -2.4000001,         -20.,           0.
     16,  -3.20000005,         -20.,           0.
     17,          -4.,         -20.,           0.
     18,  -4.80000019,         -20.,           0.
     19,          -6.,         -20.,           0.
     20,  -6.80000019,         -20.,           0.
** ... 24938 like lines cut
*Element, type=DC3D8
    1,   264,  2961,  2655,   240, 12743, 15440, 15134, 12719
    2,   288,  3443,  2654,   239, 12767, 15922, 15133, 12718
    3,  3312,  3418, 10199,   312, 15791, 15897, 22678, 12791
    4,   336,  2661,  2652,   237, 12815, 15140, 15131, 12716
    5,   360,  2665,  2651,   236, 12839, 15144, 15130, 12715
    6,  2671,   384,  2649,   235, 15150, 12863, 15128, 12714
    7,  2677,   406,  2648,   234, 15156, 12885, 15127, 12713
    8,  3024,   430,  2647,   233, 15503, 12909, 15126, 12712
    9,  3158,   454,  2646,   232, 15637, 12933, 15125, 12711
   10, 10200,  2645,   231,   477, 22679, 15124, 12710, 12956
   11,   501, 10201,  2644,   230, 12980, 22680, 15123, 12709
   12,  3187,  2643,   229,   525, 15666, 15122, 12708, 13004
   13,   547, 10202,  2642,   228, 13026, 22681, 15121, 12707
   14,   571,  4186,  2641,   227, 13050, 16665, 15120, 12706
   15,   595,  3417,  2640,   226, 13074, 15896, 15119, 12705
   16,   617,  2660,  2639,   225, 13096, 15139, 15118, 12704
   17,   641,  2662,  2638,   224, 13120, 15141, 15117, 12703
   18,  2672,   665,  2636,   223, 15151, 13144, 15115, 12702
   19,  2676,   687,  2635,   222, 15155, 13166, 15114, 12701
   20,  2901,   709,  2634,   221, 15380, 13188, 15113, 12700
** ... 12208 like lines cut
*Nset, nset=Set-1Part
1, 2, 3, 4, 5, 6, 7, 8, 
9, 10, 11, 12, 13, 14, 15, 16, 
17, 18, 19, 20, 21, 22, 23, 24, 
25, 26, 27, 28, 29, 30, 31, 32, 
33, 34, 35, 36, 37, 38, 39, 40, 
41, 42, 43, 44, 45, 46, 47, 48, 
49, 50, 51, 52, 53, 54, 55, 56, 
57, 58, 59, 60, 61, 62, 63, 64, 
65, 66, 67, 68, 69, 70, 71, 72, 
73, 74, 75, 76, 77, 78, 79, 80, 
81, 82, 83, 84, 85, 86, 87, 88, 
89, 90, 91, 92, 93, 94, 95, 96, 
97, 98, 99, 100, 101, 102, 103, 104, 
105, 106, 107, 108, 109, 110, 111, 112, 
113, 114, 115, 116, 117, 118, 119, 120, 
121, 122, 123, 124, 125, 126, 127, 128, 
129, 130, 131, 132, 133, 134, 135, 136, 
137, 138, 139, 140, 141, 142, 143, 144, 
145, 146, 147, 148, 149, 150, 151, 152, 
153, 154, 155, 156, 157, 158, 159, 160, 
** ... 3100 like lines cut
*Elset, elset=Set-1Part
1, 2, 3, 4, 5, 6, 7, 8, 
9, 10, 11, 12, 13, 14, 15, 16, 
17, 18, 19, 20, 21, 22, 23, 24, 
25, 26, 27, 28, 29, 30, 31, 32, 
33, 34, 35, 36, 37, 38, 39, 40, 
41, 42, 43, 44, 45, 46, 47, 48, 
49, 50, 51, 52, 53, 54, 55, 56, 
57, 58, 59, 60, 61, 62, 63, 64, 
65, 66, 67, 68, 69, 70, 71, 72, 
73, 74, 75, 76, 77, 78, 79, 80, 
81, 82, 83, 84, 85, 86, 87, 88, 
89, 90, 91, 92, 93, 94, 95, 96, 
97, 98, 99, 100, 101, 102, 103, 104, 
105, 106, 107, 108, 109, 110, 111, 112, 
113, 114, 115, 116, 117, 118, 119, 120, 
121, 122, 123, 124, 125, 126, 127, 128, 
129, 130, 131, 132, 133, 134, 135, 136, 
137, 138, 139, 140, 141, 142, 143, 144, 
145, 146, 147, 148, 149, 150, 151, 152, 
153, 154, 155, 156, 157, 158, 159, 160, 
** ... 1509 like lines cut
*Solid Section, elset=Eall, material=Material-1,
*Nset, nset=Set-1
     1,     2,     3,     4,     5,     6,     7,     8,     9,    10,    11,    12,    13,    14,    15,    16
    17,    18,    19,    20,    21,    22,    23,    24,    25,  2396,  2397,  2398,  2399,  2400,  2401,  2402
  2403,  2404,  2405,  2406,  2407,  2408,  2409,  2410,  2411,  2412,  2413,  2414,  2415,  2416,  2417,  2418
  2419,  2420,  2421, 12480, 12481, 12482, 12483, 12484, 12485, 12486, 12487, 12488, 12489, 12490, 12491, 12492
 12493, 12494, 12495, 12496, 12497, 12498, 12499, 12500, 12501, 12502, 12503, 12504, 14875, 14876, 14877, 14878
 14879, 14880, 14881, 14882, 14883, 14884, 14885, 14886, 14887, 14888, 14889, 14890, 14891, 14892, 14893, 14894
 14895, 14896, 14897, 14898, 14899, 14900
*Elset, elset=Set-1
  121,  122,  168,  173,  174,  175,  176,  177,  185,  186,  190,  191,  192,  193,  194,  195
  196,  197,  198,  199,  200,  201,  202,  203,  206,  207,  208, 4138, 4139, 4141, 4144, 4150
 4151, 4152, 4154, 4155, 4338, 4340, 4430, 4431, 4494, 4506, 4512, 4514, 4516, 4518, 4520, 4522
 4523, 4563
*Nset, nset=Set-2
     1,     2,     3,     4,     5,     6,     7,     8,     9,    10,    11,    12,    13,    14,    15,    16
    17,    18,    19,    20,    21,    22,    23,    24,    25,  2396,  2397,  2398,  2399,  2400,  2401,  2402
  2403,  2404,  2405,  2406,  2407,  2408,  2409,  2410,  2411,  2412,  2413,  2414,  2415,  2416,  2417,  2418
  2419,  2420,  2421, 12480, 12481, 12482, 12483, 12484, 12485, 12486, 12487, 12488, 12489, 12490, 12491, 12492
 12493, 12494, 12495, 12496, 12497, 12498, 12499, 12500, 12501, 12502, 12503, 12504, 14875, 14876, 14877, 14878
 14879, 14880, 14881, 14882, 14883, 14884, 14885, 14886, 14887, 14888, 14889, 14890, 14891, 14892, 14893, 14894
 14895, 14896, 14897, 14898, 14899, 14900
*Elset, elset=Set-2
  121,  122,  168,  173,  174,  175,  176,  177,  185,  186,  190,  191,  192,  193,  194,  195
  196,  197,  198,  199,  200,  201,  202,  203,  206,  207,  208, 4138, 4139, 4141, 4144, 4150
 4151, 4152, 4154, 4155, 4338, 4340, 4430, 4431, 4494, 4506, 4512, 4514, 4516, 4518, 4520, 4522
 4523, 4563
*Nset, nset=Set-3
1, 2, 3, 4, 5, 6, 7, 8, 
9, 10, 11, 12, 13, 14, 15, 16, 
17, 18, 19, 20, 21, 22, 23, 24, 
25, 26, 27, 28, 29, 30, 31, 32, 
33, 34, 35, 36, 37, 38, 39, 40, 
41, 42, 43, 44, 45, 46, 47, 48, 
49, 50, 51, 52, 53, 54, 55, 56, 
57, 58, 59, 60, 61, 62, 63, 64, 
65, 66, 67, 68, 69, 70, 71, 72, 
73, 74, 75, 76, 77, 78, 79, 80, 
81, 82, 83, 84, 85, 86, 87, 88, 
89, 90, 91, 92, 93, 94, 95, 96, 
97, 98, 99, 100, 101, 102, 103, 104, 
105, 106, 107, 108, 109, 110, 111, 112, 
113, 114, 115, 116, 117, 118, 119, 120, 
121, 122, 123, 124, 125, 126, 127, 128, 
129, 130, 131, 132, 133, 134, 135, 136, 
137, 138, 139, 140, 141, 142, 143, 144, 
145, 146, 147, 148, 149, 150, 151, 152, 
153, 154, 155, 156, 157, 158, 159, 160, 
** ... 3100 like lines cut
*Elset, elset=Set-3
1, 2, 3, 4, 5, 6, 7, 8, 
9, 10, 11, 12, 13, 14, 15, 16, 
17, 18, 19, 20, 21, 22, 23, 24, 
25, 26, 27, 28, 29, 30, 31, 32, 
33, 34, 35, 36, 37, 38, 39, 40, 
41, 42, 43, 44, 45, 46, 47, 48, 
49, 50, 51, 52, 53, 54, 55, 56, 
57, 58, 59, 60, 61, 62, 63, 64, 
65, 66, 67, 68, 69, 70, 71, 72, 
73, 74, 75, 76, 77, 78, 79, 80, 
81, 82, 83, 84, 85, 86, 87, 88, 
89, 90, 91, 92, 93, 94, 95, 96, 
97, 98, 99, 100, 101, 102, 103, 104, 
105, 106, 107, 108, 109, 110, 111, 112, 
113, 114, 115, 116, 117, 118, 119, 120, 
121, 122, 123, 124, 125, 126, 127, 128, 
129, 130, 131, 132, 133, 134, 135, 136, 
137, 138, 139, 140, 141, 142, 143, 144, 
145, 146, 147, 148, 149, 150, 151, 152, 
153, 154, 155, 156, 157, 158, 159, 160, 
** ... 1509 like lines cut
*Elset, elset=_Surf-1_S5
   96,   98,  569,  620,  634,  674,  696,  705,  715,  722,  728,  739,  747,  748,  772,  795
  820,  844,  867,  889,  912,  935,  960,  982, 1007, 1032, 1055, 1078, 1103, 1126, 1127, 1151
 1199, 1224, 1246, 1270, 1293, 1320, 1346, 1347, 1372, 1397, 1419, 1442, 1492, 1517, 1542, 1566
 1567, 1591, 1616, 1640, 1665, 1688, 1712, 1737, 1785, 1786, 1812, 1836, 4335, 4360, 4361, 4362
 4363, 4364, 4365, 4366, 4367, 4368, 4369, 4371, 4372, 4373, 4374, 4375, 4376, 4377, 4378, 4379
 4381, 4383, 4384, 4385, 4386, 4388, 4389, 4390, 4391, 4393, 4396, 4397, 4398, 4400, 4401, 4404
 4405, 4406, 4408, 4410, 4413, 4415, 4419, 4420, 4421, 4423, 4424, 4428, 4458, 4464
*Elset, elset=_Surf-1_S3
  509,  529,  549,  587,  604,  619,  635,  649,  662,  686,  706,  714,  723,  743,  746, 1862
 4203, 4204, 4205, 4208, 4209, 4210, 4212, 4213, 4214, 4215, 4216, 4217, 4218, 4237, 4260, 4347
 4348, 4349, 4468, 4471, 4472, 4475, 4587
*Elset, elset=_Surf-1_S6
 745,
*Material, name=Material-1
*Conductivity
245.,
*Elastic
70000., 0.33
*Elset, elset=Eall 
1,2,3,4,5,6,7,
8,9,10,11,12,13,14,
15,16,17,18,19,20,21,
22,23,24,25,26,27,28,
29,30,31,32,33,34,35,
36,37,38,39,40,41,42,
43,44,45,46,47,48,49,
50,51,52,53,54,55,56,
57,58,59,60,61,62,63,
64,65,66,67,68,69,70,
71,72,73,74,75,76,77,
78,79,80,81,82,83,84,
85,86,87,88,89,90,91,
92,93,94,95,96,97,98,
99,100,101,102,103,104,105,
106,107,108,109,110,111,112,
113,114,115,116,117,118,119,
120,121,122,123,124,125,126,
127,128,129,130,131,132,133,
134,135,136,137,138,139,140,
** ... 1727 like lines cut
*Step, name=Step-1, nlgeom=NO
*Heat Transfer, steady state, deltmx=0.
1., 1., 1e-05, 1., 
*Boundary
Set-2, 11, 11, 100.
*Dflux
Set-3, BF, -200.
*End Step
